LAMMPS (22 Mar 2013)
variable	x index 1
variable	y index 1
variable	z index 1

variable	xx equal 7.5*$x
variable	xx equal 7.5*1
variable	yy equal 7.5*$y
variable	yy equal 7.5*1
variable	zz equal 7.5*$z
variable	zz equal 7.5*1

units		lj
atom_style	atomic

lattice		fcc 0.8442
Lattice spacing in x,y,z = 1.6796 1.6796 1.6796
region		box block 0 7.5 0 7.5 0 7.5
create_box	1 box
Created orthogonal box = (0 0 0) to (12.597 12.597 12.597)
create_atoms	1 box
Created 1688 atoms
mass		1 1.0

velocity	all create 2.50 911108 loop geom

pair_style	lj/cut 2.5
pair_coeff	1 1 1.0 1.0 2.5

neighbor	0.3 bin
neigh_modify	delay 0 every 20 check no

fix		1 all nvt temp 2.00 2.00 0.10

run 		10000
Step Temp E_pair E_mol TotEng Press
0          2.5   -2.0705398            0    1.6772386    14.251891
Loop time of 14.4765 on 1 procs for 10000 steps with 1688 atoms

Pair  time (%) = 12.0262 (83.0738)
Neigh time (%) = 1.62235 (11.2067)
Comm  time (%) = 0.345463 (2.38636)
Outpt time (%) = 5.6982e-05 (0.000393617)
Other time (%) = 0.482461 (3.33271)

reset_timestep	0

thermo		10
thermo_style	custom step temp ke pe etotal
dump		1 all custom 1 dump.lj id type x y z vx vy vz
dump_modify	1 sort id

run		20000
Step Temp KinEng PotEng TotEng
0    1.9439756    2.9142359   -4.3785818   -1.4643459
Averages over the last 1001 of 2001 rows, steps 10000 to 20000:
Temp KinEng PotEng TotEng
1.99768 2.99475 -4.45094 -1.45619
Loop time of 103.273 on 1 procs for 20000 steps with 1688 atoms

Pair  time (%) = 24.8589 (24.0711)
Neigh time (%) = 3.18721 (3.08621)
Comm  time (%) = 0.693269 (0.671298)
Outpt time (%) = 73.4961 (71.1669)
Other time (%) = 1.03735 (1.00447)
